<?xml version="1.0" encoding="UTF-8"?>

<!-- generated on 03/17/20 04:49:02 by Eclipse SUMO netedit Version 1.5.0
<configuration xmlns:xsi="http://www.w3.org/2001/XMLSchema-instance" xsi:noNamespaceSchemaLocation="http://sumo.dlr.de/xsd/netconvertConfiguration.xsd">

    <input>
        <sumo-net-file value="D:\Program%20Files%20(x86)\SUMO\doc\cftest\road.net.xml"/>
    </input>

    <output>
        <output-file value="D:\Program%20Files%20(x86)\SUMO\doc\cftest\3lane.net.xml"/>
        <output.street-names value="true"/>
    </output>

    <processing>
        <geometry.min-radius.fix.railways value="false"/>
        <geometry.max-grade.fix value="false"/>
        <offset.disable-normalization value="true"/>
        <lefthand value="false"/>
    </processing>

    <junctions>
        <no-internal-links value="true"/>
        <no-turnarounds value="true"/>
        <junctions.corner-detail value="5"/>
        <junctions.limit-turn-speed value="5.5"/>
        <rectangular-lane-cut value="false"/>
    </junctions>

    <pedestrian>
        <walkingareas value="false"/>
    </pedestrian>

    <report>
        <aggregate-warnings value="5"/>
    </report>

</configuration>
-->

<net version="1.3" junctionCornerDetail="5" limitTurnSpeed="5.50" xmlns:xsi="http://www.w3.org/2001/XMLSchema-instance" xsi:noNamespaceSchemaLocation="http://sumo.dlr.de/xsd/net_file.xsd">

    <location netOffset="0.00,0.00" convBoundary="-100.00,0.00,600.00,0.00" origBoundary="-10000000000.00,-10000000000.00,10000000000.00,10000000000.00" projParameter="!"/>

    <edge id="left" from="east" to="west" name="e2w" priority="-1">
        <lane id="left_0" index="0" speed="13.89" length="500.00" shape="500.00,3.20 0.00,3.20"/>
        <lane id="left_1" index="1" speed="13.89" length="500.00" shape="500.00,0.00 0.00,0.00"/>
    </edge>
    <edge id="left_end" from="west" to="west_spawn" priority="-1">
        <lane id="left_end_0" index="0" speed="13.89" length="100.00" shape="0.00,4.80 -100.00,4.80"/>
        <lane id="left_end_1" index="1" speed="13.89" length="100.00" shape="0.00,1.60 -100.00,1.60"/>
    </edge>
    <edge id="left_start" from="east_spawn" to="east" priority="-1">
        <lane id="left_start_0" index="0" speed="13.89" length="100.00" shape="600.00,4.80 500.00,4.80"/>
        <lane id="left_start_1" index="1" speed="13.89" length="100.00" shape="600.00,1.60 500.00,1.60"/>
    </edge>
    <edge id="right" from="west" to="east" name="w2e" priority="-1">
        <lane id="right_0" index="0" speed="13.89" length="500.00" shape="0.00,-3.20 500.00,-3.20"/>
        <lane id="right_1" index="1" speed="13.89" length="500.00" shape="0.00,-0.00 500.00,-0.00"/>
    </edge>
    <edge id="right_end" from="east" to="east_spawn" priority="-1">
        <lane id="right_end_0" index="0" speed="13.89" length="100.00" shape="500.00,-4.80 600.00,-4.80"/>
        <lane id="right_end_1" index="1" speed="13.89" length="100.00" shape="500.00,-1.60 600.00,-1.60"/>
    </edge>
    <edge id="right_start" from="west_spawn" to="west" priority="-1">
        <lane id="right_start_0" index="0" speed="13.89" length="100.00" shape="-100.00,-4.80 0.00,-4.80"/>
        <lane id="right_start_1" index="1" speed="13.89" length="100.00" shape="-100.00,-1.60 0.00,-1.60"/>
    </edge>

    <junction id="east" type="zipper" x="500.00" y="0.00" incLanes="left_start_0 left_start_1 right_0 right_1" intLanes="" shape="500.00,4.80 500.00,-4.80 500.00,4.80">
        <request index="0" response="0000" foes="0000"/>
        <request index="1" response="0000" foes="0000"/>
        <request index="2" response="0000" foes="0000"/>
        <request index="3" response="0000" foes="0000"/>
    </junction>
    <junction id="east_spawn" type="dead_end" x="600.00" y="0.00" incLanes="right_end_0 right_end_1" intLanes="" shape="600.00,0.00 600.00,-6.40 600.00,0.00"/>
    <junction id="west" type="zipper" x="0.00" y="0.00" incLanes="left_0 left_1 right_start_0 right_start_1" intLanes="" shape="0.00,4.80 0.00,-4.80 0.00,4.80">
        <request index="0" response="0000" foes="0000"/>
        <request index="1" response="0000" foes="0000"/>
        <request index="2" response="0000" foes="0000"/>
        <request index="3" response="0000" foes="0000"/>
    </junction>
    <junction id="west_spawn" type="dead_end" x="-100.00" y="0.00" incLanes="left_end_0 left_end_1" intLanes="" shape="-100.00,0.00 -100.00,6.40 -100.00,0.00"/>

    <connection from="left" to="left_end" fromLane="0" toLane="0" dir="s" state="M"/>
    <connection from="left" to="left_end" fromLane="1" toLane="1" dir="s" state="M"/>
    <connection from="left_start" to="left" fromLane="0" toLane="0" dir="s" state="M"/>
    <connection from="left_start" to="left" fromLane="1" toLane="1" dir="s" state="M"/>
    <connection from="right" to="right_end" fromLane="0" toLane="0" dir="s" state="M"/>
    <connection from="right" to="right_end" fromLane="1" toLane="1" dir="s" state="M"/>
    <connection from="right_start" to="right" fromLane="0" toLane="0" dir="s" state="M"/>
    <connection from="right_start" to="right" fromLane="1" toLane="1" dir="s" state="M"/>

</net>
